

                          U.S. Geological Survey
        Coupled Groundwater and Surface-water FLOW model (GSFLOW)
                         Version 2.1.0 03/04/2020

    An integration of the Precipitation-Runoff Modeling System (PRMS)
    and the Modular Groundwater Model (MODFLOW-NWT and MODFLOW-2005)


               Precipitation-Runoff Modeling System (PRMS)
                       Version 5.1.0 03/04/2020

                            MODFLOW-NWT-SWR1 
  U.S. GEOLOGICAL SURVEY MODULAR FINITE-DIFFERENCE GROUNDWATER-FLOW MODEL
                         WITH NEWTON FORMULATION
                         Version 1.1.4 4/01/2018
              BASED ON MODFLOW-2005 Version 1.12.0 02/03/2017
                      SWR1 Version 1.04.0 09/15/2016

              PROCESSES: GWF and OBS
              PACKAGES:  BAS, BCF, CHD, DE4, FHB, GAG, GHB,
                         HFB, HUF, LAK LPF, MNW1, MNW2, NWT,
                         PCG, SFR, SIP, UPW, UZF, WEL, SWI, SWT, LMT


        Process            Available Modules
--------------------------------------------------------------------
  Basin Definition: basin
    Cascading Flow: cascade
  Time Series Data: obs, water_use_read, dynamic_param_read
   Potet Solar Rad: soltab
  Temperature Dist: temp_1sta, temp_laps, temp_dist2, climate_hru
       Precip Dist: precip_1sta, precip_laps, precip_dist2,
                    climate_hru
Temp & Precip Dist: xyz_dist, ide_dist
    Solar Rad Dist: ccsolrad, ddsolrad, climate_hru
Transpiration Dist: transp_tindex, climate_hru, transp_frost
      Potential ET: potet_hamon, potet_jh, potet_pan, climate_hru,
                    potet_hs, potet_pt, potet_pm, potet_pm_sta
      Interception: intcp
     Snow Dynamics: snowcomp
    Surface Runoff: srunoff_smidx, srunoff_carea
         Soil Zone: soilzone
       Groundwater: gwflow
Streamflow Routing: strmflow, strmflow_in_out, muskingum,
                    muskingum_lake, muskingum_mann
Stream Temperature: stream_temp
    Output Summary: basin_sum, subbasin, map_results, prms_summary,
                    nhru_summary, nsub_summary, water_balance
                    basin_summary, nsegment_summary
     Preprocessing: write_climate_hru, frost_date
--------------------------------------------------------------------


    Active modules listed in the order in which they are called

        Process                   Module                Version Date
====================================================================
GSFLOW Computation Order       gsflow_prms                2020-06-17
Basin Definition               basin                      2019-11-14
Cascading Flow                 cascade                    2019-09-25
Common States and Fluxes       climateflow                2020-01-10
Potential Solar Radiation      soltab                     2016-09-09
PRMS Set Time Variables        prms_time                  2015-03-31
Time Series Data               obs                        2020-01-09
Time Series Data               dynamic_param_read         2019-11-14
Temperature Distribution       temp_1sta                  2018-01-16
Precipitation Distribution     precip_1sta                2016-10-21
Solar Radiation Distribution   ddsolrad                   2019-04-04
Transpiration Distribution     transp_tindex              2015-01-06
Potential Evapotranspiration   potet_jh                   2019-04-04
Canopy Interception            intcp                      2020-03-03
Snow Dynamics                  snowcomp                   2019-11-27
Surface Runoff                 srunoff_smidx              2020-03-03
Soil Zone Computations         soilzone                   2020-01-10
GSFLOW PRMS to MODFLOW         gsflow_prms2mf             2019-10-30
GSFLOW MODFLOW to PRMS         gsflow_mf2prms             2017-11-15
GSFLOW Output Budget Summary   gsflow_budget              2019-10-30
GSFLOW Output CSV Summary      gsflow_sum                 2019-10-31
Output Summary                 subbasin                   2019-12-02
Subbasin Output Summary        nsub_summary               2018-05-25
====================================================================
GSFLOW MODFLOW main            gsflow_modflow             2019-10-30
====================================================================
MODFLOW Packages
====================================================================
UZF-NWT Package                gwf2uzf1_NWT               2019-09-10
SFR-NWT Package                gwf2sfr7_NWT               2017-03-08
====================================================================

Using NAME file: SRP_mf.nam

Using Solver Package: NWT 

Using Control File: SRPHM_update_future.control

Using Parameter File: prms_v3_param.params

Writing PRMS Water Budget File: SRP2-56e_gsf080713.out2

mxsziter = 500

Tolerance check for gvr_hru_pct:  0.5000000D-05

Percent difference between GVR mapping and active model domain:  0.0000000D+00

Water Budget print frequency is:   7

Writing GSFLOW Water Budget File: SRP_gsflow.out

Writing GSFLOW CSV File: gsflow.csv

Simulation time period: 2019/10/01 - 2070/12/31

====================================================================

Date: 2019/10/01; Stress:  1; Step:     1; Simulation step:    1
                  MF iterations:       63; SZ iterations:     63

Date: 2019/10/02; Stress:  1; Step:     2; Simulation step:    2
                  MF iterations:        6; SZ iterations:      6

Date: 2019/10/03; Stress:  1; Step:     3; Simulation step:    3
                  MF iterations:        2; SZ iterations:      2

Date: 2019/10/04; Stress:  1; Step:     4; Simulation step:    4
                  MF iterations:        3; SZ iterations:      3

Date: 2019/10/05; Stress:  1; Step:     5; Simulation step:    5
                  MF iterations:        3; SZ iterations:      3

Date: 2019/10/06; Stress:  1; Step:     6; Simulation step:    6
                  MF iterations:        3; SZ iterations:      3

Date: 2019/10/07; Stress:  1; Step:     7; Simulation step:    7
                  MF iterations:        3; SZ iterations:      3

Date: 2019/10/08; Stress:  1; Step:     8; Simulation step:    8
                  MF iterations:        3; SZ iterations:      3

Date: 2019/10/09; Stress:  1; Step:     9; Simulation step:    9
                  MF iterations:        2; SZ iterations:      2

Date: 2019/10/10; Stress:  1; Step:    10; Simulation step:   10
                  MF iterations:        3; SZ iterations:      3

Date: 2019/10/11; Stress:  1; Step:    11; Simulation step:   11
                  MF iterations:        3; SZ iterations:      3

Date: 2019/10/12; Stress:  1; Step:    12; Simulation step:   12
                  MF iterations:        2; SZ iterations:      2

Date: 2019/10/13; Stress:  1; Step:    13; Simulation step:   13
                  MF iterations:        2; SZ iterations:      2

Date: 2019/10/14; Stress:  1; Step:    14; Simulation step:   14
                  MF iterations:        4; SZ iterations:      4

Date: 2019/10/15; Stress:  1; Step:    15; Simulation step:   15
                  MF iterations:        3; SZ iterations:      3

Date: 2019/10/16; Stress:  1; Step:    16; Simulation step:   16
                  MF iterations:        2; SZ iterations:      2

Date: 2019/10/17; Stress:  1; Step:    17; Simulation step:   17
                  MF iterations:        2; SZ iterations:      2

Date: 2019/10/18; Stress:  1; Step:    18; Simulation step:   18
                  MF iterations:        2; SZ iterations:      2

Date: 2019/10/19; Stress:  1; Step:    19; Simulation step:   19
                  MF iterations:        2; SZ iterations:      2

Date: 2019/10/20; Stress:  1; Step:    20; Simulation step:   20
                  MF iterations:        2; SZ iterations:      2

Date: 2019/10/21; Stress:  1; Step:    21; Simulation step:   21
                  MF iterations:        2; SZ iterations:      2

Date: 2019/10/22; Stress:  1; Step:    22; Simulation step:   22
                  MF iterations:        2; SZ iterations:      2

Date: 2019/10/23; Stress:  1; Step:    23; Simulation step:   23
                  MF iterations:        4; SZ iterations:      4

Date: 2019/10/24; Stress:  1; Step:    24; Simulation step:   24
                  MF iterations:        3; SZ iterations:      3

Date: 2019/10/25; Stress:  1; Step:    25; Simulation step:   25
                  MF iterations:        3; SZ iterations:      3

Date: 2019/10/26; Stress:  1; Step:    26; Simulation step:   26
                  MF iterations:        3; SZ iterations:      3

Date: 2019/10/27; Stress:  1; Step:    27; Simulation step:   27
                  MF iterations:        3; SZ iterations:      3

Date: 2019/10/28; Stress:  1; Step:    28; Simulation step:   28
                  MF iterations:        4; SZ iterations:      4

Date: 2019/10/29; Stress:  1; Step:    29; Simulation step:   29
                  MF iterations:        2; SZ iterations:      2

Date: 2019/10/30; Stress:  1; Step:    30; Simulation step:   30
                  MF iterations:        3; SZ iterations:      3

Date: 2019/10/31; Stress:  1; Step:    31; Simulation step:   31
                  MF iterations:        2; SZ iterations:      2


***WARNING***
Non-zero values were specified for precipitation,
streamflow, and ET for streams in MODFLOW input files.
These values are set to zero for GSFLOW simulations

Date: 2019/11/01; Stress:  2; Step:     1; Simulation step:   32
                  MF iterations:        2; SZ iterations:      2

Date: 2019/11/02; Stress:  2; Step:     2; Simulation step:   33
                  MF iterations:        3; SZ iterations:      3

Date: 2019/11/03; Stress:  2; Step:     3; Simulation step:   34
                  MF iterations:        3; SZ iterations:      3

Date: 2019/11/04; Stress:  2; Step:     4; Simulation step:   35
                  MF iterations:        2; SZ iterations:      2

Date: 2019/11/05; Stress:  2; Step:     5; Simulation step:   36
                  MF iterations:        2; SZ iterations:      2

Date: 2019/11/06; Stress:  2; Step:     6; Simulation step:   37
                  MF iterations:        3; SZ iterations:      3

Date: 2019/11/07; Stress:  2; Step:     7; Simulation step:   38
                  MF iterations:        3; SZ iterations:      3

Date: 2019/11/08; Stress:  2; Step:     8; Simulation step:   39
                  MF iterations:        3; SZ iterations:      3

Date: 2019/11/09; Stress:  2; Step:     9; Simulation step:   40
                  MF iterations:        2; SZ iterations:      2

Date: 2019/11/10; Stress:  2; Step:    10; Simulation step:   41
                  MF iterations:        2; SZ iterations:      2

Date: 2019/11/11; Stress:  2; Step:    11; Simulation step:   42
                  MF iterations:        2; SZ iterations:      2

Date: 2019/11/12; Stress:  2; Step:    12; Simulation step:   43
                  MF iterations:        2; SZ iterations:      2

Date: 2019/11/13; Stress:  2; Step:    13; Simulation step:   44
                  MF iterations:        2; SZ iterations:      2

Date: 2019/11/14; Stress:  2; Step:    14; Simulation step:   45
                  MF iterations:        2; SZ iterations:      2

Date: 2019/11/15; Stress:  2; Step:    15; Simulation step:   46
                  MF iterations:        2; SZ iterations:      2

Date: 2019/11/16; Stress:  2; Step:    16; Simulation step:   47
                  MF iterations:        3; SZ iterations:      3

Date: 2019/11/17; Stress:  2; Step:    17; Simulation step:   48
                  MF iterations:        2; SZ iterations:      2

Date: 2019/11/18; Stress:  2; Step:    18; Simulation step:   49
                  MF iterations:        2; SZ iterations:      2

Date: 2019/11/19; Stress:  2; Step:    19; Simulation step:   50
                  MF iterations:        2; SZ iterations:      2

Date: 2019/11/20; Stress:  2; Step:    20; Simulation step:   51
                  MF iterations:        2; SZ iterations:      2

Date: 2019/11/21; Stress:  2; Step:    21; Simulation step:   52
                  MF iterations:        2; SZ iterations:      2

Date: 2019/11/22; Stress:  2; Step:    22; Simulation step:   53
                  MF iterations:        2; SZ iterations:      2

Date: 2019/11/23; Stress:  2; Step:    23; Simulation step:   54
                  MF iterations:        2; SZ iterations:      2

Date: 2019/11/24; Stress:  2; Step:    24; Simulation step:   55
                  MF iterations:        2; SZ iterations:      2

Date: 2019/11/25; Stress:  2; Step:    25; Simulation step:   56
                  MF iterations:        2; SZ iterations:      2

Date: 2019/11/26; Stress:  2; Step:    26; Simulation step:   57
                  MF iterations:        2; SZ iterations:      2

Date: 2019/11/27; Stress:  2; Step:    27; Simulation step:   58
                  MF iterations:        2; SZ iterations:      2

Date: 2019/11/28; Stress:  2; Step:    28; Simulation step:   59
                  MF iterations:        2; SZ iterations:      2

Date: 2019/11/29; Stress:  2; Step:    29; Simulation step:   60
                  MF iterations:        2; SZ iterations:      2

Date: 2019/11/30; Stress:  2; Step:    30; Simulation step:   61
                  MF iterations:        2; SZ iterations:      2


***WARNING***
Non-zero values were specified for precipitation,
streamflow, and ET for streams in MODFLOW input files.
These values are set to zero for GSFLOW simulations

Date: 2019/12/01; Stress:  3; Step:     1; Simulation step:   62
                  MF iterations:        2; SZ iterations:      2

Date: 2019/12/02; Stress:  3; Step:     2; Simulation step:   63
                  MF iterations:        2; SZ iterations:      2

Date: 2019/12/03; Stress:  3; Step:     3; Simulation step:   64
                  MF iterations:        1; SZ iterations:      1

Date: 2019/12/04; Stress:  3; Step:     4; Simulation step:   65
                  MF iterations:        3; SZ iterations:      3

Date: 2019/12/05; Stress:  3; Step:     5; Simulation step:   66
                  MF iterations:        3; SZ iterations:      3

Date: 2019/12/06; Stress:  3; Step:     6; Simulation step:   67
                  MF iterations:        2; SZ iterations:      2

Date: 2019/12/07; Stress:  3; Step:     7; Simulation step:   68
                  MF iterations:        1; SZ iterations:      1

Date: 2019/12/08; Stress:  3; Step:     8; Simulation step:   69
                  MF iterations:        1; SZ iterations:      1

Date: 2019/12/09; Stress:  3; Step:     9; Simulation step:   70
                  MF iterations:        1; SZ iterations:      1

Date: 2019/12/10; Stress:  3; Step:    10; Simulation step:   71
                  MF iterations:        1; SZ iterations:      1

Date: 2019/12/11; Stress:  3; Step:    11; Simulation step:   72
                  MF iterations:        2; SZ iterations:      2

Date: 2019/12/12; Stress:  3; Step:    12; Simulation step:   73
                  MF iterations:        2; SZ iterations:      2

Date: 2019/12/13; Stress:  3; Step:    13; Simulation step:   74
                  MF iterations:        2; SZ iterations:      2

Date: 2019/12/14; Stress:  3; Step:    14; Simulation step:   75
                  MF iterations:        1; SZ iterations:      1

Date: 2019/12/15; Stress:  3; Step:    15; Simulation step:   76
                  MF iterations:        3; SZ iterations:      3

Date: 2019/12/16; Stress:  3; Step:    16; Simulation step:   77
                  MF iterations:        1; SZ iterations:      1

Date: 2019/12/17; Stress:  3; Step:    17; Simulation step:   78
                  MF iterations:        1; SZ iterations:      1

Date: 2019/12/18; Stress:  3; Step:    18; Simulation step:   79
                  MF iterations:        1; SZ iterations:      1

Date: 2019/12/19; Stress:  3; Step:    19; Simulation step:   80
                  MF iterations:        1; SZ iterations:      1

Date: 2019/12/20; Stress:  3; Step:    20; Simulation step:   81
                  MF iterations:        1; SZ iterations:      1

Date: 2019/12/21; Stress:  3; Step:    21; Simulation step:   82
                  MF iterations:        2; SZ iterations:      2

Date: 2019/12/22; Stress:  3; Step:    22; Simulation step:   83
                  MF iterations:        3; SZ iterations:      3

Date: 2019/12/23; Stress:  3; Step:    23; Simulation step:   84
                  MF iterations:        3; SZ iterations:      3

Date: 2019/12/24; Stress:  3; Step:    24; Simulation step:   85
                  MF iterations:        3; SZ iterations:      3

Date: 2019/12/25; Stress:  3; Step:    25; Simulation step:   86
                  MF iterations:        3; SZ iterations:      3

Date: 2019/12/26; Stress:  3; Step:    26; Simulation step:   87
                  MF iterations:        2; SZ iterations:      2

Date: 2019/12/27; Stress:  3; Step:    27; Simulation step:   88
                  MF iterations:        2; SZ iterations:      2

Date: 2019/12/28; Stress:  3; Step:    28; Simulation step:   89
                  MF iterations:        2; SZ iterations:      2

Date: 2019/12/29; Stress:  3; Step:    29; Simulation step:   90
                  MF iterations:        2; SZ iterations:      2

Date: 2019/12/30; Stress:  3; Step:    30; Simulation step:   91
                  MF iterations:        2; SZ iterations:      2

Date: 2019/12/31; Stress:  3; Step:    31; Simulation step:   92
                  MF iterations:        2; SZ iterations:      2


***WARNING***
Non-zero values were specified for precipitation,
streamflow, and ET for streams in MODFLOW input files.
These values are set to zero for GSFLOW simulations

Date: 2020/01/01; Stress:  4; Step:     1; Simulation step:   93
                  MF iterations:        2; SZ iterations:      2

Date: 2020/01/02; Stress:  4; Step:     2; Simulation step:   94
                  MF iterations:        2; SZ iterations:      2

Date: 2020/01/03; Stress:  4; Step:     3; Simulation step:   95
                  MF iterations:        2; SZ iterations:      2

Date: 2020/01/04; Stress:  4; Step:     4; Simulation step:   96
                  MF iterations:        3; SZ iterations:      3

Date: 2020/01/05; Stress:  4; Step:     5; Simulation step:   97
                  MF iterations:        1; SZ iterations:      1

Date: 2020/01/06; Stress:  4; Step:     6; Simulation step:   98
                  MF iterations:        3; SZ iterations:      3

Date: 2020/01/07; Stress:  4; Step:     7; Simulation step:   99
                  MF iterations:        2; SZ iterations:      2

Date: 2020/01/08; Stress:  4; Step:     8; Simulation step:  100
                  MF iterations:        2; SZ iterations:      2

Date: 2020/01/09; Stress:  4; Step:     9; Simulation step:  101
                  MF iterations:        1; SZ iterations:      1

Date: 2020/01/10; Stress:  4; Step:    10; Simulation step:  102
                  MF iterations:        1; SZ iterations:      1

Date: 2020/01/11; Stress:  4; Step:    11; Simulation step:  103
                  MF iterations:        2; SZ iterations:      2

Date: 2020/01/12; Stress:  4; Step:    12; Simulation step:  104
                  MF iterations:        1; SZ iterations:      1

Date: 2020/01/13; Stress:  4; Step:    13; Simulation step:  105
                  MF iterations:        3; SZ iterations:      3

Date: 2020/01/14; Stress:  4; Step:    14; Simulation step:  106
                  MF iterations:        1; SZ iterations:      1

Date: 2020/01/15; Stress:  4; Step:    15; Simulation step:  107
                  MF iterations:        1; SZ iterations:      1

Date: 2020/01/16; Stress:  4; Step:    16; Simulation step:  108
                  MF iterations:        1; SZ iterations:      1

Date: 2020/01/17; Stress:  4; Step:    17; Simulation step:  109
                  MF iterations:        1; SZ iterations:      1

Date: 2020/01/18; Stress:  4; Step:    18; Simulation step:  110
                  MF iterations:        1; SZ iterations:      1

Date: 2020/01/19; Stress:  4; Step:    19; Simulation step:  111
                  MF iterations:        1; SZ iterations:      1

Date: 2020/01/20; Stress:  4; Step:    20; Simulation step:  112
                  MF iterations:        1; SZ iterations:      1

Date: 2020/01/21; Stress:  4; Step:    21; Simulation step:  113
                  MF iterations:        1; SZ iterations:      1

Date: 2020/01/22; Stress:  4; Step:    22; Simulation step:  114
                  MF iterations:        1; SZ iterations:      1

Date: 2020/01/23; Stress:  4; Step:    23; Simulation step:  115
                  MF iterations:        1; SZ iterations:      1

Date: 2020/01/24; Stress:  4; Step:    24; Simulation step:  116
                  MF iterations:        1; SZ iterations:      1

Date: 2020/01/25; Stress:  4; Step:    25; Simulation step:  117
                  MF iterations:        1; SZ iterations:      1

Date: 2020/01/26; Stress:  4; Step:    26; Simulation step:  118
                  MF iterations:        1; SZ iterations:      1

Date: 2020/01/27; Stress:  4; Step:    27; Simulation step:  119
                  MF iterations:        1; SZ iterations:      1

Date: 2020/01/28; Stress:  4; Step:    28; Simulation step:  120
                  MF iterations:        1; SZ iterations:      1

Date: 2020/01/29; Stress:  4; Step:    29; Simulation step:  121
                  MF iterations:        3; SZ iterations:      3

Date: 2020/01/30; Stress:  4; Step:    30; Simulation step:  122
                  MF iterations:        1; SZ iterations:      1

Date: 2020/01/31; Stress:  4; Step:    31; Simulation step:  123
                  MF iterations:        2; SZ iterations:      2


***WARNING***
Non-zero values were specified for precipitation,
streamflow, and ET for streams in MODFLOW input files.
These values are set to zero for GSFLOW simulations

Date: 2020/02/01; Stress:  5; Step:     1; Simulation step:  124
                  MF iterations:        2; SZ iterations:      2

Date: 2020/02/02; Stress:  5; Step:     2; Simulation step:  125
                  MF iterations:        2; SZ iterations:      2

Date: 2020/02/03; Stress:  5; Step:     3; Simulation step:  126
                  MF iterations:        1; SZ iterations:      1

Date: 2020/02/04; Stress:  5; Step:     4; Simulation step:  127
                  MF iterations:        2; SZ iterations:      2

Date: 2020/02/05; Stress:  5; Step:     5; Simulation step:  128
                  MF iterations:        1; SZ iterations:      1

Date: 2020/02/06; Stress:  5; Step:     6; Simulation step:  129
                  MF iterations:        2; SZ iterations:      2

Date: 2020/02/07; Stress:  5; Step:     7; Simulation step:  130
                  MF iterations:        2; SZ iterations:      2

Date: 2020/02/08; Stress:  5; Step:     8; Simulation step:  131
                  MF iterations:        2; SZ iterations:      2

Date: 2020/02/09; Stress:  5; Step:     9; Simulation step:  132
                  MF iterations:        2; SZ iterations:      2

Date: 2020/02/10; Stress:  5; Step:    10; Simulation step:  133
                  MF iterations:        3; SZ iterations:      3

Date: 2020/02/11; Stress:  5; Step:    11; Simulation step:  134
                  MF iterations:        2; SZ iterations:      2

Date: 2020/02/12; Stress:  5; Step:    12; Simulation step:  135
                  MF iterations:        1; SZ iterations:      1

Date: 2020/02/13; Stress:  5; Step:    13; Simulation step:  136
                  MF iterations:        1; SZ iterations:      1

Date: 2020/02/14; Stress:  5; Step:    14; Simulation step:  137
                  MF iterations:        1; SZ iterations:      1

Date: 2020/02/15; Stress:  5; Step:    15; Simulation step:  138
                  MF iterations:        2; SZ iterations:      2

Date: 2020/02/16; Stress:  5; Step:    16; Simulation step:  139
                  MF iterations:        1; SZ iterations:      1

Date: 2020/02/17; Stress:  5; Step:    17; Simulation step:  140
                  MF iterations:        1; SZ iterations:      1

Date: 2020/02/18; Stress:  5; Step:    18; Simulation step:  141
                  MF iterations:        1; SZ iterations:      1

Date: 2020/02/19; Stress:  5; Step:    19; Simulation step:  142
                  MF iterations:        1; SZ iterations:      1

Date: 2020/02/20; Stress:  5; Step:    20; Simulation step:  143
                  MF iterations:        1; SZ iterations:      1

Date: 2020/02/21; Stress:  5; Step:    21; Simulation step:  144
                  MF iterations:        1; SZ iterations:      1

Date: 2020/02/22; Stress:  5; Step:    22; Simulation step:  145
                  MF iterations:        1; SZ iterations:      1

Date: 2020/02/23; Stress:  5; Step:    23; Simulation step:  146
                  MF iterations:        1; SZ iterations:      1

Date: 2020/02/24; Stress:  5; Step:    24; Simulation step:  147
                  MF iterations:        1; SZ iterations:      1

Date: 2020/02/25; Stress:  5; Step:    25; Simulation step:  148
                  MF iterations:        1; SZ iterations:      1

Date: 2020/02/26; Stress:  5; Step:    26; Simulation step:  149
                  MF iterations:        1; SZ iterations:      1

Date: 2020/02/27; Stress:  5; Step:    27; Simulation step:  150
                  MF iterations:        1; SZ iterations:      1

Date: 2020/02/28; Stress:  5; Step:    28; Simulation step:  151
                  MF iterations:        1; SZ iterations:      1


***WARNING***
Non-zero values were specified for precipitation,
streamflow, and ET for streams in MODFLOW input files.
These values are set to zero for GSFLOW simulations

Date: 2020/02/29; Stress:  6; Step:     1; Simulation step:  152
                  MF iterations:        2; SZ iterations:      2

Date: 2020/03/01; Stress:  6; Step:     2; Simulation step:  153
                  MF iterations:        3; SZ iterations:      3

Date: 2020/03/02; Stress:  6; Step:     3; Simulation step:  154
                  MF iterations:        1; SZ iterations:      1

Date: 2020/03/03; Stress:  6; Step:     4; Simulation step:  155
                  MF iterations:        1; SZ iterations:      1

Date: 2020/03/04; Stress:  6; Step:     5; Simulation step:  156
                  MF iterations:        1; SZ iterations:      1

Date: 2020/03/05; Stress:  6; Step:     6; Simulation step:  157
                  MF iterations:        1; SZ iterations:      1

Date: 2020/03/06; Stress:  6; Step:     7; Simulation step:  158
                  MF iterations:        1; SZ iterations:      1

Date: 2020/03/07; Stress:  6; Step:     8; Simulation step:  159
                  MF iterations:        1; SZ iterations:      1

Date: 2020/03/08; Stress:  6; Step:     9; Simulation step:  160
                  MF iterations:        3; SZ iterations:      3

Date: 2020/03/09; Stress:  6; Step:    10; Simulation step:  161
                  MF iterations:        2; SZ iterations:      2

Date: 2020/03/10; Stress:  6; Step:    11; Simulation step:  162
                  MF iterations:        3; SZ iterations:      3

Date: 2020/03/11; Stress:  6; Step:    12; Simulation step:  163
                  MF iterations:        2; SZ iterations:      2

Date: 2020/03/12; Stress:  6; Step:    13; Simulation step:  164
                  MF iterations:        2; SZ iterations:      2

Date: 2020/03/13; Stress:  6; Step:    14; Simulation step:  165
                  MF iterations:        1; SZ iterations:      1

Date: 2020/03/14; Stress:  6; Step:    15; Simulation step:  166
                  MF iterations:        1; SZ iterations:      1

Date: 2020/03/15; Stress:  6; Step:    16; Simulation step:  167
                  MF iterations:        1; SZ iterations:      1

Date: 2020/03/16; Stress:  6; Step:    17; Simulation step:  168
                  MF iterations:        1; SZ iterations:      1

Date: 2020/03/17; Stress:  6; Step:    18; Simulation step:  169
                  MF iterations:        4; SZ iterations:      4

Date: 2020/03/18; Stress:  6; Step:    19; Simulation step:  170
                  MF iterations:        3; SZ iterations:      3

Date: 2020/03/19; Stress:  6; Step:    20; Simulation step:  171
                  MF iterations:        1; SZ iterations:      1

Date: 2020/03/20; Stress:  6; Step:    21; Simulation step:  172
                  MF iterations:        2; SZ iterations:      2

Date: 2020/03/21; Stress:  6; Step:    22; Simulation step:  173
                  MF iterations:        1; SZ iterations:      1

Date: 2020/03/22; Stress:  6; Step:    23; Simulation step:  174
                  MF iterations:        4; SZ iterations:      4

Date: 2020/03/23; Stress:  6; Step:    24; Simulation step:  175
                  MF iterations:        1; SZ iterations:      1

Date: 2020/03/24; Stress:  6; Step:    25; Simulation step:  176
                  MF iterations:        1; SZ iterations:      1

Date: 2020/03/25; Stress:  6; Step:    26; Simulation step:  177
                  MF iterations:        4; SZ iterations:      4

Date: 2020/03/26; Stress:  6; Step:    27; Simulation step:  178
                  MF iterations:        2; SZ iterations:      2

Date: 2020/03/27; Stress:  6; Step:    28; Simulation step:  179
                  MF iterations:        2; SZ iterations:      2

Date: 2020/03/28; Stress:  6; Step:    29; Simulation step:  180
                  MF iterations:        2; SZ iterations:      2

Date: 2020/03/29; Stress:  6; Step:    30; Simulation step:  181
                  MF iterations:        2; SZ iterations:      2

Date: 2020/03/30; Stress:  6; Step:    31; Simulation step:  182
                  MF iterations:        1; SZ iterations:      1


***WARNING***
Non-zero values were specified for precipitation,
streamflow, and ET for streams in MODFLOW input files.
These values are set to zero for GSFLOW simulations

Date: 2020/03/31; Stress:  7; Step:     1; Simulation step:  183
                  MF iterations:        2; SZ iterations:      2

Date: 2020/04/01; Stress:  7; Step:     2; Simulation step:  184
                  MF iterations:        2; SZ iterations:      2

Date: 2020/04/02; Stress:  7; Step:     3; Simulation step:  185
                  MF iterations:        2; SZ iterations:      2

Date: 2020/04/03; Stress:  7; Step:     4; Simulation step:  186
                  MF iterations:        2; SZ iterations:      2

Date: 2020/04/04; Stress:  7; Step:     5; Simulation step:  187
                  MF iterations:        1; SZ iterations:      1

Date: 2020/04/05; Stress:  7; Step:     6; Simulation step:  188
                  MF iterations:        2; SZ iterations:      2

Date: 2020/04/06; Stress:  7; Step:     7; Simulation step:  189
                  MF iterations:        1; SZ iterations:      1

Date: 2020/04/07; Stress:  7; Step:     8; Simulation step:  190
                  MF iterations:        1; SZ iterations:      1

Date: 2020/04/08; Stress:  7; Step:     9; Simulation step:  191
                  MF iterations:        1; SZ iterations:      1

Date: 2020/04/09; Stress:  7; Step:    10; Simulation step:  192
                  MF iterations:        1; SZ iterations:      1

Date: 2020/04/10; Stress:  7; Step:    11; Simulation step:  193
                  MF iterations:        1; SZ iterations:      1

Date: 2020/04/11; Stress:  7; Step:    12; Simulation step:  194
                  MF iterations:        1; SZ iterations:      1

Date: 2020/04/12; Stress:  7; Step:    13; Simulation step:  195
                  MF iterations:        1; SZ iterations:      1

Date: 2020/04/13; Stress:  7; Step:    14; Simulation step:  196
                  MF iterations:        1; SZ iterations:      1

Date: 2020/04/14; Stress:  7; Step:    15; Simulation step:  197
                  MF iterations:        1; SZ iterations:      1

Date: 2020/04/15; Stress:  7; Step:    16; Simulation step:  198
                  MF iterations:        1; SZ iterations:      1

Date: 2020/04/16; Stress:  7; Step:    17; Simulation step:  199
                  MF iterations:        1; SZ iterations:      1

Date: 2020/04/17; Stress:  7; Step:    18; Simulation step:  200
                  MF iterations:        1; SZ iterations:      1

Date: 2020/04/18; Stress:  7; Step:    19; Simulation step:  201
                  MF iterations:        1; SZ iterations:      1

Date: 2020/04/19; Stress:  7; Step:    20; Simulation step:  202
                  MF iterations:        2; SZ iterations:      2

Date: 2020/04/20; Stress:  7; Step:    21; Simulation step:  203
                  MF iterations:        1; SZ iterations:      1

Date: 2020/04/21; Stress:  7; Step:    22; Simulation step:  204
                  MF iterations:        4; SZ iterations:      4

Date: 2020/04/22; Stress:  7; Step:    23; Simulation step:  205
                  MF iterations:        3; SZ iterations:      3

Date: 2020/04/23; Stress:  7; Step:    24; Simulation step:  206
                  MF iterations:        2; SZ iterations:      2

Date: 2020/04/24; Stress:  7; Step:    25; Simulation step:  207
                  MF iterations:        4; SZ iterations:      4

Date: 2020/04/25; Stress:  7; Step:    26; Simulation step:  208
                  MF iterations:        2; SZ iterations:      2

Date: 2020/04/26; Stress:  7; Step:    27; Simulation step:  209
                  MF iterations:        4; SZ iterations:      4

Date: 2020/04/27; Stress:  7; Step:    28; Simulation step:  210
                  MF iterations:        1; SZ iterations:      1

Date: 2020/04/28; Stress:  7; Step:    29; Simulation step:  211
                  MF iterations:        2; SZ iterations:      2

Date: 2020/04/29; Stress:  7; Step:    30; Simulation step:  212
                  MF iterations:        4; SZ iterations:      4


***WARNING***
Non-zero values were specified for precipitation,
streamflow, and ET for streams in MODFLOW input files.
These values are set to zero for GSFLOW simulations

Date: 2020/04/30; Stress:  8; Step:     1; Simulation step:  213
                  MF iterations:        4; SZ iterations:      4

Date: 2020/05/01; Stress:  8; Step:     2; Simulation step:  214
                  MF iterations:        3; SZ iterations:      3

Date: 2020/05/02; Stress:  8; Step:     3; Simulation step:  215
                  MF iterations:        2; SZ iterations:      2

Date: 2020/05/03; Stress:  8; Step:     4; Simulation step:  216
                  MF iterations:        2; SZ iterations:      2

Date: 2020/05/04; Stress:  8; Step:     5; Simulation step:  217
                  MF iterations:        2; SZ iterations:      2

Date: 2020/05/05; Stress:  8; Step:     6; Simulation step:  218
                  MF iterations:        2; SZ iterations:      2

Date: 2020/05/06; Stress:  8; Step:     7; Simulation step:  219
                  MF iterations:        2; SZ iterations:      2

Date: 2020/05/07; Stress:  8; Step:     8; Simulation step:  220
                  MF iterations:        2; SZ iterations:      2

Date: 2020/05/08; Stress:  8; Step:     9; Simulation step:  221
                  MF iterations:        4; SZ iterations:      4

Date: 2020/05/09; Stress:  8; Step:    10; Simulation step:  222
                  MF iterations:        3; SZ iterations:      3

Date: 2020/05/10; Stress:  8; Step:    11; Simulation step:  223
                  MF iterations:        4; SZ iterations:      4

Date: 2020/05/11; Stress:  8; Step:    12; Simulation step:  224
                  MF iterations:        2; SZ iterations:      2

Date: 2020/05/12; Stress:  8; Step:    13; Simulation step:  225
                  MF iterations:        4; SZ iterations:      4

Date: 2020/05/13; Stress:  8; Step:    14; Simulation step:  226
                  MF iterations:        9; SZ iterations:      9

Date: 2020/05/14; Stress:  8; Step:    15; Simulation step:  227
                  MF iterations:        2; SZ iterations:      2

Date: 2020/05/15; Stress:  8; Step:    16; Simulation step:  228
                  MF iterations:        3; SZ iterations:      3

Date: 2020/05/16; Stress:  8; Step:    17; Simulation step:  229
                  MF iterations:        4; SZ iterations:      4

Date: 2020/05/17; Stress:  8; Step:    18; Simulation step:  230
                  MF iterations:        4; SZ iterations:      4

Date: 2020/05/18; Stress:  8; Step:    19; Simulation step:  231
                  MF iterations:        2; SZ iterations:      2

Date: 2020/05/19; Stress:  8; Step:    20; Simulation step:  232
                  MF iterations:        4; SZ iterations:      4

Date: 2020/05/20; Stress:  8; Step:    21; Simulation step:  233
                  MF iterations:        4; SZ iterations:      4

Date: 2020/05/21; Stress:  8; Step:    22; Simulation step:  234
                  MF iterations:        4; SZ iterations:      4

Date: 2020/05/22; Stress:  8; Step:    23; Simulation step:  235
                  MF iterations:        2; SZ iterations:      2

Date: 2020/05/23; Stress:  8; Step:    24; Simulation step:  236
                  MF iterations:        4; SZ iterations:      4

Date: 2020/05/24; Stress:  8; Step:    25; Simulation step:  237
                  MF iterations:        2; SZ iterations:      2

Date: 2020/05/25; Stress:  8; Step:    26; Simulation step:  238
                  MF iterations:        2; SZ iterations:      2

Date: 2020/05/26; Stress:  8; Step:    27; Simulation step:  239
                  MF iterations:        2; SZ iterations:      2

Date: 2020/05/27; Stress:  8; Step:    28; Simulation step:  240
                  MF iterations:        2; SZ iterations:      2

Date: 2020/05/28; Stress:  8; Step:    29; Simulation step:  241
                  MF iterations:        2; SZ iterations:      2

Date: 2020/05/29; Stress:  8; Step:    30; Simulation step:  242
                  MF iterations:        2; SZ iterations:      2

Date: 2020/05/30; Stress:  8; Step:    31; Simulation step:  243
                  MF iterations:        3; SZ iterations:      3


***WARNING***
Non-zero values were specified for precipitation,
streamflow, and ET for streams in MODFLOW input files.
These values are set to zero for GSFLOW simulations

Date: 2020/05/31; Stress:  9; Step:     1; Simulation step:  244
                  MF iterations:        2; SZ iterations:      2

Date: 2020/06/01; Stress:  9; Step:     2; Simulation step:  245
                  MF iterations:        2; SZ iterations:      2

Date: 2020/06/02; Stress:  9; Step:     3; Simulation step:  246
                  MF iterations:        2; SZ iterations:      2

Date: 2020/06/03; Stress:  9; Step:     4; Simulation step:  247
                  MF iterations:        2; SZ iterations:      2

Date: 2020/06/04; Stress:  9; Step:     5; Simulation step:  248
                  MF iterations:        2; SZ iterations:      2

Date: 2020/06/05; Stress:  9; Step:     6; Simulation step:  249
                  MF iterations:        2; SZ iterations:      2

Date: 2020/06/06; Stress:  9; Step:     7; Simulation step:  250
                  MF iterations:        4; SZ iterations:      4

Date: 2020/06/07; Stress:  9; Step:     8; Simulation step:  251
                  MF iterations:        4; SZ iterations:      4

Date: 2020/06/08; Stress:  9; Step:     9; Simulation step:  252
                  MF iterations:        4; SZ iterations:      4

Date: 2020/06/09; Stress:  9; Step:    10; Simulation step:  253
                  MF iterations:        2; SZ iterations:      2

Date: 2020/06/10; Stress:  9; Step:    11; Simulation step:  254
                  MF iterations:        2; SZ iterations:      2

Date: 2020/06/11; Stress:  9; Step:    12; Simulation step:  255
                  MF iterations:        4; SZ iterations:      4

Date: 2020/06/12; Stress:  9; Step:    13; Simulation step:  256
                  MF iterations:        4; SZ iterations:      4

Date: 2020/06/13; Stress:  9; Step:    14; Simulation step:  257
                  MF iterations:        3; SZ iterations:      3

Date: 2020/06/14; Stress:  9; Step:    15; Simulation step:  258
                  MF iterations:        2; SZ iterations:      2

Date: 2020/06/15; Stress:  9; Step:    16; Simulation step:  259
                  MF iterations:        2; SZ iterations:      2

Date: 2020/06/16; Stress:  9; Step:    17; Simulation step:  260
                  MF iterations:        2; SZ iterations:      2

Date: 2020/06/17; Stress:  9; Step:    18; Simulation step:  261
                  MF iterations:        3; SZ iterations:      3

Date: 2020/06/18; Stress:  9; Step:    19; Simulation step:  262
                  MF iterations:        3; SZ iterations:      3

Date: 2020/06/19; Stress:  9; Step:    20; Simulation step:  263
                  MF iterations:        2; SZ iterations:      2

Date: 2020/06/20; Stress:  9; Step:    21; Simulation step:  264
                  MF iterations:        2; SZ iterations:      2

Date: 2020/06/21; Stress:  9; Step:    22; Simulation step:  265
                  MF iterations:        2; SZ iterations:      2

Date: 2020/06/22; Stress:  9; Step:    23; Simulation step:  266
                  MF iterations:        2; SZ iterations:      2

Date: 2020/06/23; Stress:  9; Step:    24; Simulation step:  267
                  MF iterations:        4; SZ iterations:      4

Date: 2020/06/24; Stress:  9; Step:    25; Simulation step:  268
                  MF iterations:        2; SZ iterations:      2

Date: 2020/06/25; Stress:  9; Step:    26; Simulation step:  269
                  MF iterations:        2; SZ iterations:      2

Date: 2020/06/26; Stress:  9; Step:    27; Simulation step:  270
                  MF iterations:        4; SZ iterations:      4

Date: 2020/06/27; Stress:  9; Step:    28; Simulation step:  271
                  MF iterations:        4; SZ iterations:      4

Date: 2020/06/28; Stress:  9; Step:    29; Simulation step:  272
                  MF iterations:        2; SZ iterations:      2

Date: 2020/06/29; Stress:  9; Step:    30; Simulation step:  273
                  MF iterations:        2; SZ iterations:      2


***WARNING***
Non-zero values were specified for precipitation,
streamflow, and ET for streams in MODFLOW input files.
These values are set to zero for GSFLOW simulations

Date: 2020/06/30; Stress: 10; Step:     1; Simulation step:  274
                  MF iterations:        2; SZ iterations:      2

Date: 2020/07/01; Stress: 10; Step:     2; Simulation step:  275
                  MF iterations:        2; SZ iterations:      2

Date: 2020/07/02; Stress: 10; Step:     3; Simulation step:  276
                  MF iterations:        2; SZ iterations:      2

Date: 2020/07/03; Stress: 10; Step:     4; Simulation step:  277
                  MF iterations:        2; SZ iterations:      2

Date: 2020/07/04; Stress: 10; Step:     5; Simulation step:  278
                  MF iterations:        2; SZ iterations:      2

Date: 2020/07/05; Stress: 10; Step:     6; Simulation step:  279
                  MF iterations:        5; SZ iterations:      5

Date: 2020/07/06; Stress: 10; Step:     7; Simulation step:  280
                  MF iterations:        2; SZ iterations:      2

Date: 2020/07/07; Stress: 10; Step:     8; Simulation step:  281
                  MF iterations:        2; SZ iterations:      2

Date: 2020/07/08; Stress: 10; Step:     9; Simulation step:  282
                  MF iterations:        2; SZ iterations:      2

Date: 2020/07/09; Stress: 10; Step:    10; Simulation step:  283
                  MF iterations:        2; SZ iterations:      2

Date: 2020/07/10; Stress: 10; Step:    11; Simulation step:  284
                  MF iterations:        2; SZ iterations:      2

Date: 2020/07/11; Stress: 10; Step:    12; Simulation step:  285
                  MF iterations:        2; SZ iterations:      2

Date: 2020/07/12; Stress: 10; Step:    13; Simulation step:  286
                  MF iterations:        2; SZ iterations:      2

Date: 2020/07/13; Stress: 10; Step:    14; Simulation step:  287
                  MF iterations:        2; SZ iterations:      2

Date: 2020/07/14; Stress: 10; Step:    15; Simulation step:  288
                  MF iterations:        2; SZ iterations:      2

Date: 2020/07/15; Stress: 10; Step:    16; Simulation step:  289
                  MF iterations:        2; SZ iterations:      2

Date: 2020/07/16; Stress: 10; Step:    17; Simulation step:  290
                  MF iterations:        2; SZ iterations:      2

Date: 2020/07/17; Stress: 10; Step:    18; Simulation step:  291
                  MF iterations:        2; SZ iterations:      2

Date: 2020/07/18; Stress: 10; Step:    19; Simulation step:  292
                  MF iterations:        2; SZ iterations:      2

Date: 2020/07/19; Stress: 10; Step:    20; Simulation step:  293
                  MF iterations:        2; SZ iterations:      2

Date: 2020/07/20; Stress: 10; Step:    21; Simulation step:  294
                  MF iterations:        1; SZ iterations:      1

Date: 2020/07/21; Stress: 10; Step:    22; Simulation step:  295
                  MF iterations:        1; SZ iterations:      1

Date: 2020/07/22; Stress: 10; Step:    23; Simulation step:  296
                  MF iterations:        1; SZ iterations:      1

Date: 2020/07/23; Stress: 10; Step:    24; Simulation step:  297
                  MF iterations:        1; SZ iterations:      1

Date: 2020/07/24; Stress: 10; Step:    25; Simulation step:  298
                  MF iterations:        1; SZ iterations:      1

Date: 2020/07/25; Stress: 10; Step:    26; Simulation step:  299
                  MF iterations:        1; SZ iterations:      1

Date: 2020/07/26; Stress: 10; Step:    27; Simulation step:  300
                  MF iterations:        1; SZ iterations:      1

Date: 2020/07/27; Stress: 10; Step:    28; Simulation step:  301
                  MF iterations:        3; SZ iterations:      3

Date: 2020/07/28; Stress: 10; Step:    29; Simulation step:  302
                  MF iterations:        2; SZ iterations:      2

Date: 2020/07/29; Stress: 10; Step:    30; Simulation step:  303
                  MF iterations:        1; SZ iterations:      1

Date: 2020/07/30; Stress: 10; Step:    31; Simulation step:  304
                  MF iterations:        1; SZ iterations:      1


***WARNING***
Non-zero values were specified for precipitation,
streamflow, and ET for streams in MODFLOW input files.
These values are set to zero for GSFLOW simulations

Date: 2020/07/31; Stress: 11; Step:     1; Simulation step:  305
                  MF iterations:        2; SZ iterations:      2

Date: 2020/08/01; Stress: 11; Step:     2; Simulation step:  306
                  MF iterations:        2; SZ iterations:      2

Date: 2020/08/02; Stress: 11; Step:     3; Simulation step:  307
                  MF iterations:        1; SZ iterations:      1

Date: 2020/08/03; Stress: 11; Step:     4; Simulation step:  308
                  MF iterations:        1; SZ iterations:      1

Date: 2020/08/04; Stress: 11; Step:     5; Simulation step:  309
                  MF iterations:        1; SZ iterations:      1

Date: 2020/08/05; Stress: 11; Step:     6; Simulation step:  310
                  MF iterations:        1; SZ iterations:      1

Date: 2020/08/06; Stress: 11; Step:     7; Simulation step:  311
                  MF iterations:        1; SZ iterations:      1

Date: 2020/08/07; Stress: 11; Step:     8; Simulation step:  312
                  MF iterations:        1; SZ iterations:      1

Date: 2020/08/08; Stress: 11; Step:     9; Simulation step:  313
                  MF iterations:        1; SZ iterations:      1

Date: 2020/08/09; Stress: 11; Step:    10; Simulation step:  314
                  MF iterations:        1; SZ iterations:      1

Date: 2020/08/10; Stress: 11; Step:    11; Simulation step:  315
                  MF iterations:        1; SZ iterations:      1

Date: 2020/08/11; Stress: 11; Step:    12; Simulation step:  316
                  MF iterations:        1; SZ iterations:      1

Date: 2020/08/12; Stress: 11; Step:    13; Simulation step:  317
                  MF iterations:        1; SZ iterations:      1

Date: 2020/08/13; Stress: 11; Step:    14; Simulation step:  318
                  MF iterations:        6; SZ iterations:      6

Date: 2020/08/14; Stress: 11; Step:    15; Simulation step:  319
                  MF iterations:        1; SZ iterations:      1

Date: 2020/08/15; Stress: 11; Step:    16; Simulation step:  320
                  MF iterations:        1; SZ iterations:      1

Date: 2020/08/16; Stress: 11; Step:    17; Simulation step:  321
                  MF iterations:        1; SZ iterations:      1

Date: 2020/08/17; Stress: 11; Step:    18; Simulation step:  322
                  MF iterations:        1; SZ iterations:      1

Date: 2020/08/18; Stress: 11; Step:    19; Simulation step:  323
                  MF iterations:        1; SZ iterations:      1

Date: 2020/08/19; Stress: 11; Step:    20; Simulation step:  324
                  MF iterations:        1; SZ iterations:      1

Date: 2020/08/20; Stress: 11; Step:    21; Simulation step:  325
                  MF iterations:        1; SZ iterations:      1

Date: 2020/08/21; Stress: 11; Step:    22; Simulation step:  326
                  MF iterations:        1; SZ iterations:      1

Date: 2020/08/22; Stress: 11; Step:    23; Simulation step:  327
                  MF iterations:        1; SZ iterations:      1

Date: 2020/08/23; Stress: 11; Step:    24; Simulation step:  328
                  MF iterations:        1; SZ iterations:      1

Date: 2020/08/24; Stress: 11; Step:    25; Simulation step:  329
                  MF iterations:        1; SZ iterations:      1

Date: 2020/08/25; Stress: 11; Step:    26; Simulation step:  330
                  MF iterations:        1; SZ iterations:      1

Date: 2020/08/26; Stress: 11; Step:    27; Simulation step:  331
                  MF iterations:        1; SZ iterations:      1

Date: 2020/08/27; Stress: 11; Step:    28; Simulation step:  332
                  MF iterations:        1; SZ iterations:      1

Date: 2020/08/28; Stress: 11; Step:    29; Simulation step:  333
                  MF iterations:        1; SZ iterations:      1

Date: 2020/08/29; Stress: 11; Step:    30; Simulation step:  334
                  MF iterations:        1; SZ iterations:      1

Date: 2020/08/30; Stress: 11; Step:    31; Simulation step:  335
                  MF iterations:        1; SZ iterations:      1


***WARNING***
Non-zero values were specified for precipitation,
streamflow, and ET for streams in MODFLOW input files.
These values are set to zero for GSFLOW simulations

Date: 2020/08/31; Stress: 12; Step:     1; Simulation step:  336
                  MF iterations:        3; SZ iterations:      3

Date: 2020/09/01; Stress: 12; Step:     2; Simulation step:  337
                  MF iterations:        2; SZ iterations:      2

Date: 2020/09/02; Stress: 12; Step:     3; Simulation step:  338
                  MF iterations:        1; SZ iterations:      1

Date: 2020/09/03; Stress: 12; Step:     4; Simulation step:  339
                  MF iterations:        1; SZ iterations:      1

Date: 2020/09/04; Stress: 12; Step:     5; Simulation step:  340
                  MF iterations:        1; SZ iterations:      1

Date: 2020/09/05; Stress: 12; Step:     6; Simulation step:  341
                  MF iterations:        3; SZ iterations:      3

Date: 2020/09/06; Stress: 12; Step:     7; Simulation step:  342
                  MF iterations:        1; SZ iterations:      1

Date: 2020/09/07; Stress: 12; Step:     8; Simulation step:  343
                  MF iterations:        1; SZ iterations:      1

Date: 2020/09/08; Stress: 12; Step:     9; Simulation step:  344
                  MF iterations:        1; SZ iterations:      1

Date: 2020/09/09; Stress: 12; Step:    10; Simulation step:  345
                  MF iterations:        1; SZ iterations:      1

Date: 2020/09/10; Stress: 12; Step:    11; Simulation step:  346
                  MF iterations:        1; SZ iterations:      1

Date: 2020/09/11; Stress: 12; Step:    12; Simulation step:  347
                  MF iterations:        1; SZ iterations:      1

Date: 2020/09/12; Stress: 12; Step:    13; Simulation step:  348
                  MF iterations:        1; SZ iterations:      1

Date: 2020/09/13; Stress: 12; Step:    14; Simulation step:  349
                  MF iterations:        1; SZ iterations:      1

Date: 2020/09/14; Stress: 12; Step:    15; Simulation step:  350
                  MF iterations:        1; SZ iterations:      1

Date: 2020/09/15; Stress: 12; Step:    16; Simulation step:  351
                  MF iterations:        1; SZ iterations:      1

Date: 2020/09/16; Stress: 12; Step:    17; Simulation step:  352
                  MF iterations:        1; SZ iterations:      1

Date: 2020/09/17; Stress: 12; Step:    18; Simulation step:  353
                  MF iterations:        1; SZ iterations:      1

Date: 2020/09/18; Stress: 12; Step:    19; Simulation step:  354
                  MF iterations:        1; SZ iterations:      1

Date: 2020/09/19; Stress: 12; Step:    20; Simulation step:  355
                  MF iterations:        1; SZ iterations:      1

Date: 2020/09/20; Stress: 12; Step:    21; Simulation step:  356
                  MF iterations:        1; SZ iterations:      1

Date: 2020/09/21; Stress: 12; Step:    22; Simulation step:  357
                  MF iterations:        1; SZ iterations:      1

Date: 2020/09/22; Stress: 12; Step:    23; Simulation step:  358
                  MF iterations:        1; SZ iterations:      1

Date: 2020/09/23; Stress: 12; Step:    24; Simulation step:  359
                  MF iterations:        1; SZ iterations:      1

Date: 2020/09/24; Stress: 12; Step:    25; Simulation step:  360
                  MF iterations:        2; SZ iterations:      2

Date: 2020/09/25; Stress: 12; Step:    26; Simulation step:  361
                  MF iterations:        1; SZ iterations:      1

Date: 2020/09/26; Stress: 12; Step:    27; Simulation step:  362
                  MF iterations:        1; SZ iterations:      1

Date: 2020/09/27; Stress: 12; Step:    28; Simulation step:  363
                  MF iterations:        1; SZ iterations:      1

Date: 2020/09/28; Stress: 12; Step:    29; Simulation step:  364
                  MF iterations:        1; SZ iterations:      1

Date: 2020/09/29; Stress: 12; Step:    30; Simulation step:  365
                  MF iterations:        1; SZ iterations:      1


***WARNING***
Non-zero values were specified for precipitation,
streamflow, and ET for streams in MODFLOW input files.
These values are set to zero for GSFLOW simulations

Date: 2020/09/30; Stress: 13; Step:     1; Simulation step:  366
                  MF iterations:       67; SZ iterations:     67

Date: 2020/10/01; Stress: 13; Step:     2; Simulation step:  367
                  MF iterations:        2; SZ iterations:      2

***TIME STEP FAILED TO CONVERGE - Date: 2020/10/02 number:     1

Date: 2020/10/02; Stress: 13; Step:     3; Simulation step:  368
                  MF iterations:      100; SZ iterations:    100

***TIME STEP FAILED TO CONVERGE - Date: 2020/10/03 number:     2

Date: 2020/10/03; Stress: 13; Step:     4; Simulation step:  369
                  MF iterations:      100; SZ iterations:    100

***TIME STEP FAILED TO CONVERGE - Date: 2020/10/04 number:     3

Date: 2020/10/04; Stress: 13; Step:     5; Simulation step:  370
                  MF iterations:      100; SZ iterations:    100

Date: 2020/10/05; Stress: 13; Step:     6; Simulation step:  371
                  MF iterations:        5; SZ iterations:      5

Date: 2020/10/06; Stress: 13; Step:     7; Simulation step:  372
                  MF iterations:        2; SZ iterations:      2

Date: 2020/10/07; Stress: 13; Step:     8; Simulation step:  373
                  MF iterations:        1; SZ iterations:      1

Date: 2020/10/08; Stress: 13; Step:     9; Simulation step:  374
                  MF iterations:        1; SZ iterations:      1

Date: 2020/10/09; Stress: 13; Step:    10; Simulation step:  375
                  MF iterations:        1; SZ iterations:      1

Date: 2020/10/10; Stress: 13; Step:    11; Simulation step:  376
                  MF iterations:        1; SZ iterations:      1

Date: 2020/10/11; Stress: 13; Step:    12; Simulation step:  377
                  MF iterations:        1; SZ iterations:      1

Date: 2020/10/12; Stress: 13; Step:    13; Simulation step:  378
                  MF iterations:        2; SZ iterations:      2

Date: 2020/10/13; Stress: 13; Step:    14; Simulation step:  379
                  MF iterations:        2; SZ iterations:      2

Date: 2020/10/14; Stress: 13; Step:    15; Simulation step:  380
                  MF iterations:        1; SZ iterations:      1

Date: 2020/10/15; Stress: 13; Step:    16; Simulation step:  381
                  MF iterations:        5; SZ iterations:      5

Date: 2020/10/16; Stress: 13; Step:    17; Simulation step:  382
                  MF iterations:        1; SZ iterations:      1

Date: 2020/10/17; Stress: 13; Step:    18; Simulation step:  383
                  MF iterations:        1; SZ iterations:      1

Date: 2020/10/18; Stress: 13; Step:    19; Simulation step:  384
                  MF iterations:        2; SZ iterations:      2

Date: 2020/10/19; Stress: 13; Step:    20; Simulation step:  385
                  MF iterations:        1; SZ iterations:      1

Date: 2020/10/20; Stress: 13; Step:    21; Simulation step:  386
                  MF iterations:        1; SZ iterations:      1

Date: 2020/10/21; Stress: 13; Step:    22; Simulation step:  387
                  MF iterations:        1; SZ iterations:      1

Date: 2020/10/22; Stress: 13; Step:    23; Simulation step:  388
                  MF iterations:        1; SZ iterations:      1

Date: 2020/10/23; Stress: 13; Step:    24; Simulation step:  389
                  MF iterations:        1; SZ iterations:      1

Date: 2020/10/24; Stress: 13; Step:    25; Simulation step:  390
                  MF iterations:        1; SZ iterations:      1

Date: 2020/10/25; Stress: 13; Step:    26; Simulation step:  391
                  MF iterations:        1; SZ iterations:      1

Date: 2020/10/26; Stress: 13; Step:    27; Simulation step:  392
                  MF iterations:        4; SZ iterations:      4

Date: 2020/10/27; Stress: 13; Step:    28; Simulation step:  393
                  MF iterations:        3; SZ iterations:      3

Date: 2020/10/28; Stress: 13; Step:    29; Simulation step:  394
                  MF iterations:        2; SZ iterations:      2

Date: 2020/10/29; Stress: 13; Step:    30; Simulation step:  395
                  MF iterations:        2; SZ iterations:      2

Date: 2020/10/30; Stress: 13; Step:    31; Simulation step:  396
                  MF iterations:        1; SZ iterations:      1


***WARNING***
Non-zero values were specified for precipitation,
streamflow, and ET for streams in MODFLOW input files.
These values are set to zero for GSFLOW simulations

Date: 2020/10/31; Stress: 14; Step:     1; Simulation step:  397
                  MF iterations:        4; SZ iterations:      4

Date: 2020/11/01; Stress: 14; Step:     2; Simulation step:  398
                  MF iterations:        3; SZ iterations:      3

Date: 2020/11/02; Stress: 14; Step:     3; Simulation step:  399
                  MF iterations:        2; SZ iterations:      2

Date: 2020/11/03; Stress: 14; Step:     4; Simulation step:  400
                  MF iterations:        2; SZ iterations:      2

Date: 2020/11/04; Stress: 14; Step:     5; Simulation step:  401
                  MF iterations:        2; SZ iterations:      2

Date: 2020/11/05; Stress: 14; Step:     6; Simulation step:  402
                  MF iterations:        2; SZ iterations:      2

Date: 2020/11/06; Stress: 14; Step:     7; Simulation step:  403
                  MF iterations:        1; SZ iterations:      1

Date: 2020/11/07; Stress: 14; Step:     8; Simulation step:  404
                  MF iterations:        1; SZ iterations:      1

Date: 2020/11/08; Stress: 14; Step:     9; Simulation step:  405
                  MF iterations:        2; SZ iterations:      2

Date: 2020/11/09; Stress: 14; Step:    10; Simulation step:  406
                  MF iterations:        2; SZ iterations:      2

Date: 2020/11/10; Stress: 14; Step:    11; Simulation step:  407
                  MF iterations:        2; SZ iterations:      2

Date: 2020/11/11; Stress: 14; Step:    12; Simulation step:  408
                  MF iterations:        1; SZ iterations:      1

Date: 2020/11/12; Stress: 14; Step:    13; Simulation step:  409
                  MF iterations:        1; SZ iterations:      1

Date: 2020/11/13; Stress: 14; Step:    14; Simulation step:  410
                  MF iterations:        1; SZ iterations:      1

Date: 2020/11/14; Stress: 14; Step:    15; Simulation step:  411
                  MF iterations:        1; SZ iterations:      1

Date: 2020/11/15; Stress: 14; Step:    16; Simulation step:  412
                  MF iterations:        2; SZ iterations:      2

Date: 2020/11/16; Stress: 14; Step:    17; Simulation step:  413
                  MF iterations:        2; SZ iterations:      2

Date: 2020/11/17; Stress: 14; Step:    18; Simulation step:  414
                  MF iterations:        2; SZ iterations:      2

Date: 2020/11/18; Stress: 14; Step:    19; Simulation step:  415
                  MF iterations:        2; SZ iterations:      2

Date: 2020/11/19; Stress: 14; Step:    20; Simulation step:  416
                  MF iterations:        1; SZ iterations:      1

Date: 2020/11/20; Stress: 14; Step:    21; Simulation step:  417
                  MF iterations:        1; SZ iterations:      1

Date: 2020/11/21; Stress: 14; Step:    22; Simulation step:  418
                  MF iterations:        1; SZ iterations:      1

Date: 2020/11/22; Stress: 14; Step:    23; Simulation step:  419
                  MF iterations:        2; SZ iterations:      2

Date: 2020/11/23; Stress: 14; Step:    24; Simulation step:  420
                  MF iterations:        3; SZ iterations:      3

Date: 2020/11/24; Stress: 14; Step:    25; Simulation step:  421
                  MF iterations:        2; SZ iterations:      2

Date: 2020/11/25; Stress: 14; Step:    26; Simulation step:  422
                  MF iterations:        2; SZ iterations:      2

Date: 2020/11/26; Stress: 14; Step:    27; Simulation step:  423
                  MF iterations:        2; SZ iterations:      2

Date: 2020/11/27; Stress: 14; Step:    28; Simulation step:  424
                  MF iterations:        2; SZ iterations:      2

Date: 2020/11/28; Stress: 14; Step:    29; Simulation step:  425
                  MF iterations:        2; SZ iterations:      2

Date: 2020/11/29; Stress: 14; Step:    30; Simulation step:  426
                  MF iterations:        2; SZ iterations:      2


***WARNING***
Non-zero values were specified for precipitation,
streamflow, and ET for streams in MODFLOW input files.
These values are set to zero for GSFLOW simulations

Date: 2020/11/30; Stress: 15; Step:     1; Simulation step:  427
                  MF iterations:        2; SZ iterations:      2

Date: 2020/12/01; Stress: 15; Step:     2; Simulation step:  428
                  MF iterations:        5; SZ iterations:      5

Date: 2020/12/02; Stress: 15; Step:     3; Simulation step:  429
                  MF iterations:        2; SZ iterations:      2

Date: 2020/12/03; Stress: 15; Step:     4; Simulation step:  430
                  MF iterations:        3; SZ iterations:      3

Date: 2020/12/04; Stress: 15; Step:     5; Simulation step:  431
                  MF iterations:        3; SZ iterations:      3

Date: 2020/12/05; Stress: 15; Step:     6; Simulation step:  432
                  MF iterations:        3; SZ iterations:      3

Date: 2020/12/06; Stress: 15; Step:     7; Simulation step:  433
                  MF iterations:        4; SZ iterations:      4

Date: 2020/12/07; Stress: 15; Step:     8; Simulation step:  434
                  MF iterations:        2; SZ iterations:      2

Date: 2020/12/08; Stress: 15; Step:     9; Simulation step:  435
                  MF iterations:        3; SZ iterations:      3

Date: 2020/12/09; Stress: 15; Step:    10; Simulation step:  436
                  MF iterations:        3; SZ iterations:      3

Date: 2020/12/10; Stress: 15; Step:    11; Simulation step:  437
                  MF iterations:        2; SZ iterations:      2

Date: 2020/12/11; Stress: 15; Step:    12; Simulation step:  438
                  MF iterations:        4; SZ iterations:      4

Date: 2020/12/12; Stress: 15; Step:    13; Simulation step:  439
                  MF iterations:        1; SZ iterations:      1

Date: 2020/12/13; Stress: 15; Step:    14; Simulation step:  440
                  MF iterations:        2; SZ iterations:      2

Date: 2020/12/14; Stress: 15; Step:    15; Simulation step:  441
                  MF iterations:        2; SZ iterations:      2

Date: 2020/12/15; Stress: 15; Step:    16; Simulation step:  442
                  MF iterations:        3; SZ iterations:      3

Date: 2020/12/16; Stress: 15; Step:    17; Simulation step:  443
                  MF iterations:        2; SZ iterations:      2

Date: 2020/12/17; Stress: 15; Step:    18; Simulation step:  444
                  MF iterations:        1; SZ iterations:      1

Date: 2020/12/18; Stress: 15; Step:    19; Simulation step:  445
                  MF iterations:        1; SZ iterations:      1

Date: 2020/12/19; Stress: 15; Step:    20; Simulation step:  446
                  MF iterations:        1; SZ iterations:      1

Date: 2020/12/20; Stress: 15; Step:    21; Simulation step:  447
                  MF iterations:        2; SZ iterations:      2

Date: 2020/12/21; Stress: 15; Step:    22; Simulation step:  448
                  MF iterations:        2; SZ iterations:      2

Date: 2020/12/22; Stress: 15; Step:    23; Simulation step:  449
                  MF iterations:        1; SZ iterations:      1

Date: 2020/12/23; Stress: 15; Step:    24; Simulation step:  450
                  MF iterations:        1; SZ iterations:      1

Date: 2020/12/24; Stress: 15; Step:    25; Simulation step:  451
                  MF iterations:        1; SZ iterations:      1

Date: 2020/12/25; Stress: 15; Step:    26; Simulation step:  452
                  MF iterations:        1; SZ iterations:      1

Date: 2020/12/26; Stress: 15; Step:    27; Simulation step:  453
                  MF iterations:        3; SZ iterations:      3

Date: 2020/12/27; Stress: 15; Step:    28; Simulation step:  454
                  MF iterations:        1; SZ iterations:      1

Date: 2020/12/28; Stress: 15; Step:    29; Simulation step:  455
                  MF iterations:        2; SZ iterations:      2

Date: 2020/12/29; Stress: 15; Step:    30; Simulation step:  456
                  MF iterations:        2; SZ iterations:      2

Date: 2020/12/30; Stress: 15; Step:    31; Simulation step:  457
                  MF iterations:        1; SZ iterations:      1


***WARNING***
Non-zero values were specified for precipitation,
streamflow, and ET for streams in MODFLOW input files.
These values are set to zero for GSFLOW simulations

Date: 2020/12/31; Stress: 16; Step:     1; Simulation step:  458
                  MF iterations:        2; SZ iterations:      2

Date: 2021/01/01; Stress: 16; Step:     2; Simulation step:  459
                  MF iterations:        2; SZ iterations:      2

Date: 2021/01/02; Stress: 16; Step:     3; Simulation step:  460
                  MF iterations:        2; SZ iterations:      2

Date: 2021/01/03; Stress: 16; Step:     4; Simulation step:  461
                  MF iterations:       12; SZ iterations:     12

Date: 2021/01/04; Stress: 16; Step:     5; Simulation step:  462
                  MF iterations:        2; SZ iterations:      2

Date: 2021/01/05; Stress: 16; Step:     6; Simulation step:  463
                  MF iterations:        2; SZ iterations:      2

Date: 2021/01/06; Stress: 16; Step:     7; Simulation step:  464
                  MF iterations:        2; SZ iterations:      2

Date: 2021/01/07; Stress: 16; Step:     8; Simulation step:  465
                  MF iterations:        2; SZ iterations:      2

Date: 2021/01/08; Stress: 16; Step:     9; Simulation step:  466
                  MF iterations:        2; SZ iterations:      2

Date: 2021/01/09; Stress: 16; Step:    10; Simulation step:  467
                  MF iterations:        2; SZ iterations:      2

Date: 2021/01/10; Stress: 16; Step:    11; Simulation step:  468
                  MF iterations:        2; SZ iterations:      2

Date: 2021/01/11; Stress: 16; Step:    12; Simulation step:  469
                  MF iterations:        3; SZ iterations:      3

Date: 2021/01/12; Stress: 16; Step:    13; Simulation step:  470
                  MF iterations:        4; SZ iterations:      4

Date: 2021/01/13; Stress: 16; Step:    14; Simulation step:  471
                  MF iterations:        2; SZ iterations:      2

Date: 2021/01/14; Stress: 16; Step:    15; Simulation step:  472
                  MF iterations:        2; SZ iterations:      2

Date: 2021/01/15; Stress: 16; Step:    16; Simulation step:  473
                  MF iterations:        3; SZ iterations:      3

Date: 2021/01/16; Stress: 16; Step:    17; Simulation step:  474
                  MF iterations:        2; SZ iterations:      2

Date: 2021/01/17; Stress: 16; Step:    18; Simulation step:  475
                  MF iterations:        2; SZ iterations:      2

Date: 2021/01/18; Stress: 16; Step:    19; Simulation step:  476
                  MF iterations:        2; SZ iterations:      2

Date: 2021/01/19; Stress: 16; Step:    20; Simulation step:  477
                  MF iterations:        2; SZ iterations:      2

Date: 2021/01/20; Stress: 16; Step:    21; Simulation step:  478
                  MF iterations:        3; SZ iterations:      3

Date: 2021/01/21; Stress: 16; Step:    22; Simulation step:  479
                  MF iterations:        2; SZ iterations:      2

Date: 2021/01/22; Stress: 16; Step:    23; Simulation step:  480
                  MF iterations:        2; SZ iterations:      2

Date: 2021/01/23; Stress: 16; Step:    24; Simulation step:  481
                  MF iterations:        2; SZ iterations:      2

Date: 2021/01/24; Stress: 16; Step:    25; Simulation step:  482
                  MF iterations:        2; SZ iterations:      2

Date: 2021/01/25; Stress: 16; Step:    26; Simulation step:  483
                  MF iterations:        2; SZ iterations:      2

Date: 2021/01/26; Stress: 16; Step:    27; Simulation step:  484
                  MF iterations:        2; SZ iterations:      2

Date: 2021/01/27; Stress: 16; Step:    28; Simulation step:  485
                  MF iterations:        2; SZ iterations:      2

Date: 2021/01/28; Stress: 16; Step:    29; Simulation step:  486
                  MF iterations:        2; SZ iterations:      2

Date: 2021/01/29; Stress: 16; Step:    30; Simulation step:  487
                  MF iterations:        2; SZ iterations:      2

Date: 2021/01/30; Stress: 16; Step:    31; Simulation step:  488
                  MF iterations:        1; SZ iterations:      1


***WARNING***
Non-zero values were specified for precipitation,
streamflow, and ET for streams in MODFLOW input files.
These values are set to zero for GSFLOW simulations

Date: 2021/01/31; Stress: 17; Step:     1; Simulation step:  489
                  MF iterations:        2; SZ iterations:      2

Date: 2021/02/01; Stress: 17; Step:     2; Simulation step:  490
                  MF iterations:        2; SZ iterations:      2

Date: 2021/02/02; Stress: 17; Step:     3; Simulation step:  491
                  MF iterations:        2; SZ iterations:      2

Date: 2021/02/03; Stress: 17; Step:     4; Simulation step:  492
                  MF iterations:        2; SZ iterations:      2

Date: 2021/02/04; Stress: 17; Step:     5; Simulation step:  493
                  MF iterations:        2; SZ iterations:      2

Date: 2021/02/05; Stress: 17; Step:     6; Simulation step:  494
                  MF iterations:        2; SZ iterations:      2

Date: 2021/02/06; Stress: 17; Step:     7; Simulation step:  495
                  MF iterations:        2; SZ iterations:      2

Date: 2021/02/07; Stress: 17; Step:     8; Simulation step:  496
                  MF iterations:        1; SZ iterations:      1

Date: 2021/02/08; Stress: 17; Step:     9; Simulation step:  497
                  MF iterations:        1; SZ iterations:      1

Date: 2021/02/09; Stress: 17; Step:    10; Simulation step:  498
                  MF iterations:        1; SZ iterations:      1

Date: 2021/02/10; Stress: 17; Step:    11; Simulation step:  499
                  MF iterations:        2; SZ iterations:      2

Date: 2021/02/11; Stress: 17; Step:    12; Simulation step:  500
                  MF iterations:        2; SZ iterations:      2

Date: 2021/02/12; Stress: 17; Step:    13; Simulation step:  501
                  MF iterations:        3; SZ iterations:      3

Date: 2021/02/13; Stress: 17; Step:    14; Simulation step:  502
                  MF iterations:        2; SZ iterations:      2

Date: 2021/02/14; Stress: 17; Step:    15; Simulation step:  503
                  MF iterations:        2; SZ iterations:      2

Date: 2021/02/15; Stress: 17; Step:    16; Simulation step:  504
                  MF iterations:        1; SZ iterations:      1

Date: 2021/02/16; Stress: 17; Step:    17; Simulation step:  505
                  MF iterations:        1; SZ iterations:      1

Date: 2021/02/17; Stress: 17; Step:    18; Simulation step:  506
                  MF iterations:        1; SZ iterations:      1

Date: 2021/02/18; Stress: 17; Step:    19; Simulation step:  507
                  MF iterations:        1; SZ iterations:      1

Date: 2021/02/19; Stress: 17; Step:    20; Simulation step:  508
                  MF iterations:        1; SZ iterations:      1

Date: 2021/02/20; Stress: 17; Step:    21; Simulation step:  509
                  MF iterations:        4; SZ iterations:      4

Date: 2021/02/21; Stress: 17; Step:    22; Simulation step:  510
                  MF iterations:        1; SZ iterations:      1

Date: 2021/02/22; Stress: 17; Step:    23; Simulation step:  511
                  MF iterations:        1; SZ iterations:      1

Date: 2021/02/23; Stress: 17; Step:    24; Simulation step:  512
                  MF iterations:        2; SZ iterations:      2

Date: 2021/02/24; Stress: 17; Step:    25; Simulation step:  513
                  MF iterations:        1; SZ iterations:      1

Date: 2021/02/25; Stress: 17; Step:    26; Simulation step:  514
                  MF iterations:        1; SZ iterations:      1

Date: 2021/02/26; Stress: 17; Step:    27; Simulation step:  515
                  MF iterations:        1; SZ iterations:      1

Date: 2021/02/27; Stress: 17; Step:    28; Simulation step:  516
                  MF iterations:        1; SZ iterations:      1

Date: 2021/02/28; Stress: 17; Step:    29; Simulation step:  517
                  MF iterations:        1; SZ iterations:      1


***WARNING***
Non-zero values were specified for precipitation,
streamflow, and ET for streams in MODFLOW input files.
These values are set to zero for GSFLOW simulations

Date: 2021/03/01; Stress: 18; Step:     1; Simulation step:  518
                  MF iterations:        2; SZ iterations:      2

Date: 2021/03/02; Stress: 18; Step:     2; Simulation step:  519
                  MF iterations:        2; SZ iterations:      2

Date: 2021/03/03; Stress: 18; Step:     3; Simulation step:  520
                  MF iterations:        1; SZ iterations:      1

Date: 2021/03/04; Stress: 18; Step:     4; Simulation step:  521
                  MF iterations:        1; SZ iterations:      1

Date: 2021/03/05; Stress: 18; Step:     5; Simulation step:  522
                  MF iterations:        1; SZ iterations:      1

Date: 2021/03/06; Stress: 18; Step:     6; Simulation step:  523
                  MF iterations:        1; SZ iterations:      1

Date: 2021/03/07; Stress: 18; Step:     7; Simulation step:  524
                  MF iterations:        1; SZ iterations:      1

Date: 2021/03/08; Stress: 18; Step:     8; Simulation step:  525
                  MF iterations:        1; SZ iterations:      1

Date: 2021/03/09; Stress: 18; Step:     9; Simulation step:  526
                  MF iterations:        1; SZ iterations:      1

Date: 2021/03/10; Stress: 18; Step:    10; Simulation step:  527
                  MF iterations:        1; SZ iterations:      1

Date: 2021/03/11; Stress: 18; Step:    11; Simulation step:  528
                  MF iterations:        1; SZ iterations:      1

Date: 2021/03/12; Stress: 18; Step:    12; Simulation step:  529
                  MF iterations:        1; SZ iterations:      1

Date: 2021/03/13; Stress: 18; Step:    13; Simulation step:  530
                  MF iterations:        1; SZ iterations:      1

